93

Dy          0.0000000       0.0000000       0.0000000 
C          -2.4679080      -0.6463300      -0.3455370 
C          -2.4274540       0.2437460       0.8149430 
C          -2.0634270       1.5463780       0.3227140 
H          -1.9960900       2.4482460       0.9383810 
C          -1.9256790       1.5260700      -1.1017870 
C          -2.1603660       0.1771220      -1.4863600 
H          -2.1757030      -0.1727120      -2.5229600 
C          -2.8568490      -2.1328590      -0.5454710 
C          -2.1500330      -3.0987250       0.4315360 
H          -1.0394800      -3.0265390       0.3521070 
H          -2.4059670      -4.1479600       0.1826690 
H          -2.4243460      -2.9392750       1.4886920 
C          -2.4624880      -2.6049580      -1.9666600 
H          -3.0097150      -2.0613480      -2.7603750 
H          -2.7088720      -3.6787470      -2.0797630 
H          -1.3736410      -2.4941850      -2.1622570 
C          -4.3936430      -2.2740340      -0.4292870 
H          -4.7695080      -1.9783500       0.5657030 
H          -4.6986970      -3.3245820      -0.6138470 
H          -4.8947620      -1.6334700      -1.1818320 
C          -2.5171770      -0.0240780       2.3355370 
C          -3.7366060      -0.8736010       2.7435050 
H          -3.7179380      -1.8967660       2.3311260 
H          -4.6748290      -0.3886680       2.4091230 
H          -3.7770410      -0.9653490       3.8475380 
C          -2.6336440       1.3085660       3.1114860 
H          -1.7509930       1.9635470       2.9742490 
H          -2.7188490       1.1001110       4.1960860 
H          -3.5344940       1.8736010       2.8018420 
C          -1.1968580      -0.7037350       2.7779610 
H          -0.3158340      -0.0359610       2.5995160 
H          -1.0249890      -1.6848270       2.2874580 
H          -1.1693580      -0.8959640       3.8709360 
C          -1.9010630       2.7328760      -2.0405310 
C           2.4274560       0.2437170      -0.8149580 
C           2.4679010      -0.6463680       0.3455150 
C           2.1603750       0.1770810       1.4863460 
H           2.1757120      -0.1727620       2.5229430 
C           1.9257050       1.5260360       1.1017840 
C           2.0634470       1.5463510      -0.3227180 
H           1.9961150       2.4482220      -0.9383790 
C           2.5171910      -0.0240860      -2.3355560 
C           1.1968570      -0.7036870      -2.7780190 
H           0.3158540      -0.0358900      -2.5995650 
H           1.0249470      -1.6847880      -2.2875490 
H           1.1693700      -0.8958830      -3.8710000 
C           2.6337200       1.3085690      -3.1114780 
H           2.7189450       1.1001320      -4.1960800 
H           3.5345800       1.8735700      -2.8018010 
H           1.7510860       1.9635750      -2.9742510 
C           3.7365970      -0.8736450      -2.7435200 
H           3.7178870      -1.8968160      -2.3311580 
H           4.6748330      -0.3887510      -2.4091180 
H           3.7770420      -0.9653760      -3.8475540 
C           2.8567970      -2.1329090       0.5454320 
C           4.3935850      -2.2741380       0.4292420 
H           4.8947290      -1.6336070       1.1817990 
H           4.6986020      -3.3247000       0.6137820 
H           4.7694590      -1.9784490      -0.5657430 
C           2.4624230      -2.6050140       1.9666150 
H           1.3735780      -2.4942190       2.1622100 
H           3.0096610      -2.0614260       2.7603380 
H           2.7087810      -3.6788100       2.0797060 
C           2.1499380      -3.0987340      -0.4315840 
H           1.0393870      -3.0264930      -0.3521550 
H           2.4058180      -4.1479840      -0.1827280 
H           2.4242580      -2.9392850      -1.4887390 
C           1.9011060       2.7328360       2.0405340 
C           3.3595960       3.2539800       2.1189830 
H           3.7246620       3.5691040       1.1210550 
H           4.0427720       2.4687580       2.5001620 
H           3.4207750       4.1271040       2.8002270 
C           1.4381060       2.3384370       3.4556790 
H           0.4008600       1.9456070       3.4539090 
H           1.4544520       3.2243740       4.1207790 
H           2.0970310       1.5744010       3.9145040 
C           0.9949780       3.8558410       1.5081940 
H           1.3041060       4.1963800       0.5006120 
H           1.0377400       4.7351690       2.1812850 
H          -0.0605720       3.5241890       1.4471050 
C          -1.4380320       2.3384870      -3.4556680 
H          -0.4007830       1.9456630      -3.4538760 
H          -1.4543680       3.2244260      -4.1207640 
H          -2.0969410       1.5744490      -3.9145110 
C          -3.3595530       3.2540150      -2.1190080 
H          -4.0427170       2.4687940      -2.5002090 
H          -3.4207200       4.1271450      -2.8002450 
H          -3.7246430       3.5691280      -1.1210840 
C          -0.9949480       3.8558790      -1.5081660 
H          -1.0377010       4.7352120      -2.1812520 
H           0.0606010       3.5242280      -1.4470630 
H          -1.3040940       4.1964110      -0.5005880 
