84
1
Dy      0.805083    5.192257    4.302267
Be      -0.226225    2.893051    4.031407
N       2.361653    6.669972    5.690306
N       0.597273    7.592639    3.428392
N      -0.847367    5.256465    2.332394
N       2.038851    3.676921    5.986284
O      -0.712137    5.618522    5.710925
O       2.332843    4.737363    2.920038
C      -1.740840    5.812896    6.660340
C      -1.312339    6.846882    7.704041
H      -0.533697    6.511301    8.197025
H      -2.049921    7.006053    8.330112
H      -1.078570    7.685255    7.256045
C      -2.027857    4.501258    7.387257
H      -2.342469    3.832715    6.744316
H      -2.717937    4.648931    8.067687
H      -1.208180    4.180488    7.818383
C      -2.996447    6.296317    5.945795
H      -2.808888    7.146366    5.494050
H      -3.715998    6.425529    6.599983
H      -3.273987    5.629378    5.284110
C       3.369437    4.393887    2.023295
C       3.079728    3.033979    1.370232
H       3.087336    2.335043    2.056285
H       3.767290    2.841253    0.699175
H       2.199734    3.059181    0.939106
C       4.688015    4.252926    2.776079
H       4.902783    5.101117    3.220327
H       5.402514    4.025277    2.146260
H       4.606439    3.543925    3.449011
C       3.496303    5.458855    0.955976
H       2.660152    5.513844    0.447997
H       4.231977    5.229622    0.350525
H       3.679431    6.325336    1.377730
C       0.507744    1.804993    3.756423
H       1.425049    1.924466    3.540860
C       0.006133    0.517562    3.769544
H       0.564069   -0.219612    3.553981
C      -1.316388    0.323345    4.098887
H      -1.684300   -0.551531    4.138813
C      -2.097025    1.436436    4.369372
H      -3.016121    1.337021    4.590559
C      -1.521535    2.686972    4.311826
H      -2.070315    3.444018    4.479966
C       3.313122    7.450742    5.149524
H       3.412715    7.449087    4.204420
C       4.152197    8.254893    5.891436
H       4.819659    8.782761    5.469682
C       4.000412    8.276432    7.267291
H       4.555797    8.827714    7.805262
C       3.025062    7.483605    7.846125
H       2.903127    7.476897    8.787481
C       2.238200    6.704250    7.032421
H       1.571975    6.159626    7.437868
C       0.929136    7.944611    2.182999
H       1.356475    7.303098    1.628908
C       0.681551    9.195202    1.666397
H       0.939529    9.409155    0.776028
C       0.052453   10.134793    2.459295
H      -0.134835   11.003620    2.123766
C      -0.296310    9.791962    3.739553
H      -0.728722   10.418487    4.305641
C      -0.007616    8.517764    4.191298
H      -0.247850    8.285443    5.081668
C      -1.944056    6.027949    2.284970
H      -2.099949    6.636620    2.997266
C      -2.856027    5.980893    1.250267
H      -3.618783    6.547001    1.255890
C      -2.649695    5.105550    0.208065
H      -3.271553    5.042916   -0.507979
C      -1.515127    4.317447    0.230559
H      -1.335059    3.712128   -0.477988
C      -0.646604    4.426407    1.299003
H       0.134279    3.883703    1.300877
C       3.381864    3.746903    6.085255
H       3.843048    4.362804    5.529665
C       4.121112    2.970112    6.950132
H       5.066779    3.043681    6.976750
C       3.464669    2.081307    7.777333
H       3.949819    1.537399    8.386346
C       2.082274    1.999214    7.700855
H       1.601284    1.398351    8.258882
C       1.416349    2.810928    6.794927
H       0.469760    2.748971    6.746191
